<?xml version="1.0" encoding="utf-8"?>
<!DOCTYPE population SYSTEM "http://www.matsim.org/files/dtd/population_v6.dtd">
<population>
	<person id="PAX 1">
    <attributes>
      <attribute name="carAvail" class="java.lang.String">always</attribute>
      <attribute name="is_electric_car" class="java.lang.String">no</attribute>
      <attribute name="plate_number" class="java.lang.String">9</attribute>
    </attributes>		
		<plan selected="yes">
			<activity type="home" link="0001" x="0" y="0" end_time="06:01:00"></activity>
			<leg mode="uam"></leg>
			<activity type="work" link="0910" x="20040" y="0" max_dur="03:01:00"></activity>
			<leg mode="uam"></leg>
			<activity type="home" link="0001" x="0" y="0"></activity>
		</plan>
	</person>
	<person id="TAXI 1">
    <attributes>
      <attribute name="carAvail" class="java.lang.String">never</attribute>
      <attribute name="is_electric_car" class="java.lang.String">no</attribute>
      <attribute name="plate_number" class="java.lang.String">9</attribute>
    </attributes>		
		<plan selected="yes">
			<activity type="home" link="0001" x="0" y="0" end_time="06:01:00"></activity>
			<leg mode="taxi"></leg>
			<activity type="work" link="0910" x="20040" y="0" max_dur="03:01:00"></activity>
			<leg mode="taxi"></leg>
			<activity type="home" link="0001" x="0" y="0"></activity>
		</plan>
	</person>	
</population>
