<?xml version="1.0" encoding="UTF-8"?>
<!DOCTYPE vehicles SYSTEM "https://matsim.org/files/dtd/dvrp_vehicles_v1.dtd">

<vehicles>
  <vehicle id="taxi_A0005T" start_link="0102" t_0="0" t_1="108000"/>
</vehicles>
